/*--------------------------------*- C++ -*----------------------------------*\
| =========                 |                                                 |
| \\      /  F ield         | OpenFOAM: The Open Source CFD Toolbox           |
|  \\    /   O peration     | Version:  v2412                                 |
|   \\  /    A nd           | Website:  www.openfoam.com                      |
|    \\/     M anipulation  |                                                 |
\*---------------------------------------------------------------------------*/
FoamFile
{
    version     2.0;
    format      ascii;
    class       dictionary;
    object      controlDict;
}
// * * * * * * * * * * * * * * * * * * * * * * * * * * * * * * * * * * * * * //

application     simpleFoam;

startFrom       startTime;

startTime       0;

stopAt          endTime;

endTime         1000;

deltaT          1;

writeControl    timeStep;

writeInterval   100;

purgeWrite      0;

writeFormat     ascii;

writePrecision  6;

writeCompression off;

timeFormat      general;

timePrecision   6;

runTimeModifiable true;

functions
{
    forceCoeffs
{
    type            forceCoeffs;
        libs ( "libforces.so" );
        writeControl   timeStep;
        writeInterval  100;
        patches         (walls);
        coefficients    (Cd Cl);	// [Cd, Cd(f), Cd(r), Cs, Cs(f), Cs(r), Cl, Cl(f), Cl(r), CmRoll, CmPitch, CmYaw]  -Supress unnecesarry values
        rho             rhoInf;
        log             true;
        rhoInf          1.225;
        liftDir         (__LIFTX__ __LIFTY__ 0);
        dragDir         (__DRAGX__ __DRAGY__ 0);
        CofR            (0 0 0);
        pitchAxis       (0 0 1);
        magUInf         __U__;
        lRef            1;
        Aref            1;
	}


    turbulenceFields1
    {
        type            turbulenceFields;
        libs            (fieldFunctionObjects);
        fields
        (
            k
            epsilon
            nut
            nuEff
            R
            devReff
            L
            I
        );

        executeControl  writeTime;
        writeControl    writeTime;
    }

    mag1
    {
        type            mag;
        libs            (fieldFunctionObjects);
        field           turbulenceProperties:R;

        result          magR;
        executeControl  writeTime;
        writeControl    writeTime;
    }
}


// ************************************************************************* //
